*Heading
** Job name: Job-22 Model name: Model-1
** Generated by: Abaqus/CAE 2023
*Preprint, echo=NO, model=NO, history=NO, contact=NO
**
** PARTS
**
*Part, name=Part-1
*Node
      1, -0.00999999978, -0.0199999996, 0.00499999989
      2, -0.00999999978, -0.0149999997, 0.00499999989
      3, -0.00999999978, -0.00999999978, 0.00499999989
      4, -0.00999999978, -0.00499999989, 0.00499999989
      5, -0.00999999978,           0., 0.00499999989
      6, -0.00999999978, 0.00499999989, 0.00499999989
      7, -0.00999999978, 0.00999999978, 0.00499999989
      8, -0.00999999978, 0.0149999997, 0.00499999989
      9, -0.00999999978, 0.0199999996, 0.00499999989
     10, -0.00999999978, 0.0250000004, 0.00499999989
     11, -0.00999999978, 0.0299999993, 0.00499999989
     12, -0.00999999978, 0.0350000001, 0.00499999989
     13, -0.00999999978, 0.0399999991, 0.00499999989
     14, -0.00999999978, -0.0199999996,           0.
     15, -0.00999999978, -0.0149999997,           0.
     16, -0.00999999978, -0.00999999978,           0.
     17, -0.00999999978, -0.00499999989,           0.
     18, -0.00999999978,           0.,           0.
     19, -0.00999999978, 0.00499999989,           0.
     20, -0.00999999978, 0.00999999978,           0.
** ... 318 like lines cut
*Element, type=C3D8R
  1,  27,  28,  41,  40,   1,   2,  15,  14
  2,  28,  29,  42,  41,   2,   3,  16,  15
  3,  29,  30,  43,  42,   3,   4,  17,  16
  4,  30,  31,  44,  43,   4,   5,  18,  17
  5,  31,  32,  45,  44,   5,   6,  19,  18
  6,  32,  33,  46,  45,   6,   7,  20,  19
  7,  33,  34,  47,  46,   7,   8,  21,  20
  8,  34,  35,  48,  47,   8,   9,  22,  21
  9,  35,  36,  49,  48,   9,  10,  23,  22
 10,  36,  37,  50,  49,  10,  11,  24,  23
 11,  37,  38,  51,  50,  11,  12,  25,  24
 12,  38,  39,  52,  51,  12,  13,  26,  25
 13,  53,  54,  67,  66,  27,  28,  41,  40
 14,  54,  55,  68,  67,  28,  29,  42,  41
 15,  55,  56,  69,  68,  29,  30,  43,  42
 16,  56,  57,  70,  69,  30,  31,  44,  43
 17,  57,  58,  71,  70,  31,  32,  45,  44
 18,  58,  59,  72,  71,  32,  33,  46,  45
 19,  59,  60,  73,  72,  33,  34,  47,  46
 20,  60,  61,  74,  73,  34,  35,  48,  47
** ... 124 like lines cut
*Nset, nset=Set-1, generate
   1,  338,    1
*Elset, elset=Set-1, generate
   1,  144,    1
** Section: Section-1
*Solid Section, elset=Set-1, material=Material-1
,
*End Part
**  
*Part, name=Part-2
*End Part
**  
*Part, name=Part-3
*Node
      1, 0.00670747133, -0.00160216156,           0.
      2, 0.00710291695, 0.00288510579,           0.
      3, 0.00478528952, 0.00674781809,           0.
      4, 0.000639844104, 0.00851055048,           0.
      5, -0.00374999992, 0.00749999983,           0.
      6, -0.00670747133, 0.00410216162,           0.
      7, -0.00710291695, -0.000385105726,           0.
      8, -0.00478528952, -0.00424781814,           0.
      9, -0.000639844104, -0.00601055101,           0.
     10, 0.00374999992, -0.00499999989,           0.
     11, -0.000703804428, -0.00196750043,           0.
     12, -0.00151720934, 0.00446873298,           0.
     13, -0.00334332185, 0.00013884982,           0.
     14, 0.00126121251, 0.000735859212,           0.
     15, 0.00177609525, 0.00406640349,           0.
     16, -0.00260247942, 0.00236859475,           0.
     17, 0.00670747133, -0.00160216156, 0.00200000009
     18, 0.00710291695, 0.00288510579, 0.00200000009
     19, 0.00478528952, 0.00674781809, 0.00200000009
     20, 0.000639844104, 0.00851055048, 0.00200000009
** ... 108 like lines cut
*Element, type=C3D8R
 1,  24,  23,  29,  27,   8,   7,  13,  11
 2,  31,  20,  19,  18,  15,   4,   3,   2
 3,  31,  30,  32,  28,  15,  14,  16,  12
 4,  21,  28,  32,  22,   5,  12,  16,   6
 5,  27,  26,  25,  24,  11,  10,   9,   8
 6,  26,  27,  30,  17,  10,  11,  14,   1
 7,  20,  31,  28,  21,   4,  15,  12,   5
 8,  18,  17,  30,  31,   2,   1,  14,  15
 9,  27,  29,  32,  30,  11,  13,  16,  14
10,  32,  29,  23,  22,  16,  13,   7,   6
11,  40,  39,  45,  43,  24,  23,  29,  27
12,  47,  36,  35,  34,  31,  20,  19,  18
13,  47,  46,  48,  44,  31,  30,  32,  28
14,  37,  44,  48,  38,  21,  28,  32,  22
15,  43,  42,  41,  40,  27,  26,  25,  24
16,  42,  43,  46,  33,  26,  27,  30,  17
17,  36,  47,  44,  37,  20,  31,  28,  21
18,  34,  33,  46,  47,  18,  17,  30,  31
19,  43,  45,  48,  46,  27,  29,  32,  30
20,  48,  45,  39,  38,  32,  29,  23,  22
** ... 50 like lines cut
*Nset, nset=Set-1, generate
   1,  128,    1
*Elset, elset=Set-1, generate
  1,  70,   1
*Orientation, name=Ori-1
1., 0., 0., 0., 1., 0.
2, 0.
** Section: Section-2
*Solid Section, elset=Set-1, orientation=Ori-1, material=Material-2
,
*End Part
**  
**
** ASSEMBLY
**
*Assembly, name=Assembly
**  
*Instance, name=Part-1-1, part=Part-1
*End Instance
**  
*Instance, name=Part-2-1, part=Part-2
       -0.01,         0.01,           0.
*End Instance
**  
*Instance, name=Part-3-1, part=Part-3
*End Instance
**  
*Nset, nset=Set-2, instance=Part-1-1, generate
   1,  326,   13
*Elset, elset=Set-2, instance=Part-1-1, generate
   1,  133,   12
*Nset, nset=Set-4, instance=Part-3-1, generate
 113,  128,    1
*Elset, elset=Set-4, instance=Part-3-1, generate
 61,  70,   1
*Nset, nset=Set-5, instance=Part-3-1, generate
 113,  122,    1
*Elset, elset=Set-5, instance=Part-3-1
 61, 62, 64, 65, 66, 67, 68, 70
*Nset, nset=Set-6, instance=Part-1-1
  14,  15,  16,  17,  18,  19,  20,  21,  22,  23,  24,  25,  26,  40,  41,  42
  43,  44,  45,  46,  47,  48,  49,  50,  51,  52,  66,  67,  68,  69,  70,  71
  72,  73,  74,  75,  76,  77,  78,  92,  93,  94,  95,  96,  97,  98,  99, 100
 101, 102, 103, 104, 118, 119, 120, 121, 122, 123, 124, 125, 126, 127, 128, 129
 130, 144, 145, 146, 147, 148, 149, 150, 151, 152, 153, 154, 155, 156, 170, 171
 172, 173, 174, 175, 176, 177, 178, 179, 180, 181, 182, 196, 197, 198, 199, 200
 201, 202, 203, 204, 205, 206, 207, 208, 222, 223, 224, 225, 226, 227, 228, 229
 230, 231, 232, 233, 234, 248, 249, 250, 251, 252, 253, 254, 255, 256, 257, 258
 259, 260, 274, 275, 276, 277, 278, 279, 280, 281, 282, 283, 284, 285, 286, 300
 301, 302, 303, 304, 305, 306, 307, 308, 309, 310, 311, 312, 326, 327, 328, 329
 330, 331, 332, 333, 334, 335, 336, 337, 338
*Elset, elset=Set-6, instance=Part-1-1, generate
   1,  144,    1
*Nset, nset=Set-7, instance=Part-3-1, generate
  1,  16,   1
*Elset, elset=Set-7, instance=Part-3-1, generate
  1,  10,   1
*Nset, nset=Set-8, instance=Part-3-1, generate
 113,  128,    1
*Elset, elset=Set-8, instance=Part-3-1, generate
 61,  70,   1
*Nset, nset=Set-9, instance=Part-1-1, generate
 313,  338,    1
*Elset, elset=Set-9, instance=Part-1-1, generate
 133,  144,    1
*Nset, nset=Set-10, instance=Part-1-1, generate
 313,  338,    1
*Elset, elset=Set-10, instance=Part-1-1, generate
 133,  144,    1
*Nset, nset=Set-11, instance=Part-1-1, generate
   1,  326,   13
*Elset, elset=Set-11, instance=Part-1-1, generate
   1,  133,   12
*Nset, nset=Set-node, instance=Part-1-1, generate
  13,  130,   13
*Nset, nset=_PickedSet6, internal, instance=Part-1-1, generate
   1,  338,    1
*Elset, elset=_PickedSet6, internal, instance=Part-1-1, generate
   1,  144,    1
*Elset, elset=_Surf-1_S1, internal, instance=Part-3-1, generate
 61,  70,   1
*Surface, type=ELEMENT, name=Surf-1
_Surf-1_S1, S1
*Elset, elset=_Surf-2_S5, internal, instance=Part-1-1, generate
   1,  144,    1
*Surface, type=ELEMENT, name=Surf-2
_Surf-2_S5, S5
*Enrichment, name=Crack-1, type=PROPAGATION CRACK, elset=_PickedSet6
*End Assembly
** 
** MATERIALS
** 
*Material, name=Material-1
*Damage Initiation, criterion=MAXPE
 1e+07,
*Damage Evolution, type=DISPLACEMENT
 0.0001,
*Density
7800.,
*Elastic
 2.15e+11, 0.3
*Material, name=Material-2
*Density
7500.,
*Dielectric, type=ANISO
 5.87e-09,       0., 6.75e-09,       0.,       0., 6.75e-09
*Elastic, type=ORTHOTROPIC
 1.5e+11, 7.43e+10, 1.39e+11, 7.43e+10, 7.78e+10, 1.39e+11, 2.56e+10, 2.56e+10
 2.56e+10,
*Piezoelectric
 15.08, -5.207, -5.207,     0.,     0.,     0.,     0.,     0.
     0.,  12.71,     0.,     0.,     0.,     0.,     0.,     0.
  12.71,     0.
*Initial Conditions, type=ENRICHMENT
Part-1-1.43, 1,Crack-1, 1e-06, 0.
Part-1-1.43, 2,Crack-1, -0.005, 0.
Part-1-1.43, 3,Crack-1, -0.005, 0.
Part-1-1.43, 4,Crack-1, 1e-06, 0.
Part-1-1.43, 5,Crack-1, 1e-06, -0.005
Part-1-1.43, 6,Crack-1, -0.005, -0.005
Part-1-1.43, 7,Crack-1, -0.005, -0.005
Part-1-1.43, 8,Crack-1, 1e-06, -0.005
Part-1-1.31, 1,Crack-1, 1e-06
Part-1-1.31, 2,Crack-1, -0.005
Part-1-1.31, 3,Crack-1, -0.005
Part-1-1.31, 4,Crack-1, 1e-06
Part-1-1.31, 5,Crack-1, 1e-06
Part-1-1.31, 6,Crack-1, -0.005
Part-1-1.31, 7,Crack-1, -0.005
Part-1-1.31, 8,Crack-1, 1e-06
Part-1-1.19, 1,Crack-1, 1e-06
Part-1-1.19, 2,Crack-1, -0.005
Part-1-1.19, 3,Crack-1, -0.005
Part-1-1.19, 4,Crack-1, 1e-06
** ... 12 like lines cut
** 
** BOUNDARY CONDITIONS
** 
** Name: BC-1 Type: Symmetry/Antisymmetry/Encastre
*Boundary
Set-2, ENCASTRE
** ----------------------------------------------------------------
** 
** STEP: Step-1
** 
*Step, name=Step-1, nlgeom=YES
*Static, stabilize=0.0002, allsdtol=0.05, continue=NO
1e-05, 1., 1e-12, 1.
** 
** BOUNDARY CONDITIONS
** 
** Name: BC-2 Type: Displacement/Rotation
*Boundary
Set-node, 1, 1
Set-node, 2, 2, 0.0005
Set-node, 3, 3
Set-node, 4, 4
Set-node, 5, 5
Set-node, 6, 6
** Name: BC-3 Type: Electric potential
*Boundary
Set-4, 9, 9, 500.
** Name: BC-4 Type: Symmetry/Antisymmetry/Encastre
*Boundary
Set-5, ENCASTRE
** Name: BC-5 Type: Symmetry/Antisymmetry/Encastre
*Boundary
Set-7, PINNED
** Name: BC-6 Type: Symmetry/Antisymmetry/Encastre
*Boundary
Set-8, PINNED
** Name: BC-7 Type: Symmetry/Antisymmetry/Encastre
*Boundary
Set-9, ENCASTRE
** Name: BC-8 Type: Symmetry/Antisymmetry/Encastre
*Boundary
Set-10, PINNED
** Name: BC-9 Type: Symmetry/Antisymmetry/Encastre
*Boundary
Set-11, PINNED
** 
** LOADS
** 
** Name: Load-1   Type: Pressure
*Dsload
Surf-1, P, 200000.
** Name: Load-2   Type: Pressure
*Dsload
Surf-2, P, 200000.
** 
** INTERACTIONS
** 
** Interaction: Int-1
*Enrichment Activation, name=Crack-1, activate=ON
** 
** OUTPUT REQUESTS
** 
*Restart, write, frequency=0
** 
** FIELD OUTPUT: F-Output-1
** 
*Output, field
*Node Output
CF, PHILSM, PSILSM, RF, U
*Element Output, directions=YES
DMICRT, EACTIVE, LE, PE, PEEQ, PEMAG, S, STATUS
*Contact Output
CDISP, CSTRESS
** 
** HISTORY OUTPUT: H-Output-1
** 
*Output, history, variable=PRESELECT
*End Step
